/*--------------------------------*- C++ -*----------------------------------*\
| =========                 |                                                 |
| \\      /  F ield         | OpenFOAM: The Open Source CFD Toolbox           |
|  \\    /   O peration     | Version:  4.x                                   |
|   \\  /    A nd           | Web:      www.OpenFOAM.org                      |
|    \\/     M anipulation  |                                                 |
\*---------------------------------------------------------------------------*/
FoamFile
{
    version     2.0;
    format      ascii;
    class       volScalarField;
    location    "0";
    object      alphat;
}
// * * * * * * * * * * * * * * * * * * * * * * * * * * * * * * * * * * * * * //

dimensions      [1 -1 -1 0 0 0 0];

internalField   uniform 0;

boundaryField
{
    inlet
    {
        type            calculated;
        value           uniform 0;
    }

    outlet
    {
        type            compressible::alphatCV2WallFunction;
        kappa           0.41;
        kappaT          2.5;
        E               8.6;
        value           uniform 0;
    }

    wall
    {
        type            compressible::alphatCV2WallFunction;
        kappa           0.41;
        kappaT          2.5;
        E               8.6;
        value           uniform 0;
    }

    injector1
    {
        type            compressible::alphatCV2WallFunction;
        kappa           0.41;
        kappaT          2.5;
        E               8.6;
        value           uniform 0;
    }

    injector2
    {
        type            compressible::alphatCV2WallFunction;
        kappa           0.41;
        kappaT          2.5;
        E               8.6;
        value           uniform 0;
    }

    injector3
    {
        type            compressible::alphatCV2WallFunction;
        kappa           0.41;
        kappaT          2.5;
        E               8.6;
        value           uniform 0;
    }

    injector4
    {
        type            compressible::alphatCV2WallFunction;
        kappa           0.41;
        kappaT          2.5;
        E               8.6;
        value           uniform 0;
    }

}


// ************************************************************************* //
