/*--------------------------------*- C++ -*----------------------------------*\
| =========                 |                                                 |
| \\      /  F ield         | OpenFOAM: The Open Source CFD Toolbox           |
|  \\    /   O peration     | Version:  4.x                                   |
|   \\  /    A nd           | Web:      www.OpenFOAM.org                      |
|    \\/     M anipulation  |                                                 |
\*---------------------------------------------------------------------------*/
FoamFile
{
    version     2.0;
    format      ascii;
    class       dictionary;
    location    "system";
    object      controlDict;
}
// * * * * * * * * * * * * * * * * * * * * * * * * * * * * * * * * * * * * * //

application     CV2Foam250620;

startFrom       latestTime;

startTime       0.28;

stopAt          endTime;

endTime         0.375;

deltaT          5e-07;

writeControl    adjustableRunTime; //runTime;

writeInterval   0.005;

purgeWrite      0;

writeFormat     binary;

writePrecision  6;

writeCompression compressed;

timeFormat      general;

timePrecision   6;

runTimeModifiable true;

adjustTimeStep  yes;

maxCo           0.8;

libs ("CV2WallFunction.so");

functions
{
   rhofunc
    {
      type                 writeObjects;
      functionObjectLibs   ("libutilityFunctionObjects.so");
      writeControl        writeTime;
      writeInterval       1;
      objects
      (
         "rho" "e"
      );
    }

    yPlus1
    {
     type yPlus;
     libs ("libfieldFunctionObjects.so");
     patches (wall);
     writeControl        writeTime;
     }

    volumeAverage
    {
        type            volRegion;
        libs            ("libfieldFunctionObjects.so");

        log             true;
        writeControl    writeTime;
        writeFields     true;

        regionType      all;
        operation       volAverage;

        fields
        (
            p
            T
        );
    }

   probes
    {
        type            probes;
        functionObjectLibs ("libsampling.so");
        enabled         true;
        writeControl   timeStep;
        writeInterval  100;

        fields
        (
            p U rho T scal1 scal2 scal3 OmegaP OmegaSpark 
        );

        probeLocations
        (
            (0.05 0.00225 0.025)
	    (-0.228 0.025 0.025)
            (-0.2 0.025 0.025)
            (-0.118 0.025 0.025)
            (0.0 0.025 0.025)
            (0.0175 0.025 0.049)
            (0.003 0.025 0.025)
            (0.05 0.025 0.025)
            (0.097 0.025 0.025)
            (0.1 0.025 0.025)
            (0.052 0.001 0.025)
            (0.378 0.025 0.025)
            (0.025 0.017 0.05)
        );
    }

}

// ************************************************************************* //
