/*--------------------------------*- C++ -*----------------------------------*\
| =========                 |                                                 |
| \\      /  F ield         | OpenFOAM: The Open Source CFD Toolbox           |
|  \\    /   O peration     | Version:  4.x                                   |
|   \\  /    A nd           | Web:      www.OpenFOAM.org                      |
|    \\/     M anipulation  |                                                 |
\*---------------------------------------------------------------------------*/
FoamFile
{
    version     2.0;
    format      ascii;
    class       dictionary;
    object      topoSetDict;
}
// * * * * * * * * * * * * * * * * * * * * * * * * * * * * * * * * * * * * * //

actions
(
    // Create cellZone for ignition 
    {
        name    allumageCellSet;
        type    cellSet;
        action  new;
        source  boxToCell;
        sourceInfo
        {
            box     (0.049 0 0.0245) (0.050 0.0020 0.0255);
        }
    }
    {
        name    allumageZone;
        type    cellZoneSet;
        action  new;
        source  setToCellZone;
        sourceInfo
        {
            set     allumageCellSet;
        }
    }
    
);

// ************************************************************************* //
